Modified_IEEE123nodetestSystem/IEEE123Master.dss
Clear


New object=circuit.ieee123
~ basekv=4.16 Bus1=150 pu=1.00 R1=0 X1=0.0001 R0=0 X0=0.0001

new transformer.reg1a phases=3 windings=2 buses=[150 150r] conns=[wye wye] kvs=[4.16 4.16] kvas=[5000 5000] XHL=.001 %LoadLoss=0.00001 ppm=0.0
new regcontrol.creg1a transformer=reg1a winding=2 vreg=120 band=2 ptratio=20 ctprim=700 R=3 X=7.5              

Redirect        IEEELinecodes.DSS

New Line.L115            Bus1=149        Bus2=1          LineCode=1    Length=0.4

! New Line.L1     Phases=1 Bus1=1.2        Bus2=2.2        LineCode=10   Length=0.175             
New Line.L1     Phases=3 Bus1=1        Bus2=2        LineCode=2   Length=0.175                     

New Line.L2     Phases=1 Bus1=1.3        Bus2=3.3        LineCode=11   Length=0.25
New Line.L3     Phases=3 Bus1=1.1.2.3    Bus2=7.1.2.3    LineCode=1    Length=0.3
New Line.L4     Phases=1 Bus1=3.3        Bus2=4.3        LineCode=11   Length=0.2
New Line.L5     Phases=1 Bus1=3.3        Bus2=5.3        LineCode=11   Length=0.325
New Line.L6     Phases=1 Bus1=5.3        Bus2=6.3        LineCode=11   Length=0.25
New Line.L7     Phases=3 Bus1=7.1.2.3    Bus2=8.1.2.3    LineCode=1    Length=0.2
New Line.L8     Phases=1 Bus1=8.2        Bus2=12.2       LineCode=10   Length=0.225
New Line.L9     Phases=1 Bus1=8.1        Bus2=9.1        LineCode=9    Length=0.225
New Line.L10    Phases=3 Bus1=8.1.2.3    Bus2=13.1.2.3   LineCode=1    Length=0.3
New Line.L11    Phases=1 Bus1=9r.1       Bus2=14.1       LineCode=9    Length=0.425

! New Line.L12    Phases=1 Bus1=13.3       Bus2=34.3       LineCode=11   Length=0.15              
New Line.L12    Phases=3 Bus1=13       Bus2=34       LineCode=6   Length=0.15                        

New Line.L13    Phases=3 Bus1=13.1.2.3   Bus2=18.1.2.3   LineCode=2    Length=0.825
New Line.L14    Phases=1 Bus1=14.1       Bus2=11.1       LineCode=9    Length=0.25
New Line.L15    Phases=1 Bus1=14.1       Bus2=10.1       LineCode=9    Length=0.25

! New Line.L16    Phases=1 Bus1=15.3       Bus2=16.3       LineCode=11   Length=0.375           
New Line.L16    Phases=3 Bus1=15       Bus2=16       LineCode=6          Length=0.375               

New Line.L17    Phases=1 Bus1=15.3       Bus2=17.3       LineCode=11   Length=0.35

! New Line.L18    Phases=1 Bus1=18.1       Bus2=19.1       LineCode=9    Length=0.25            
New Line.L18    Phases=3 Bus1=18       Bus2=19       LineCode=2    Length=0.25                   

New Line.L19    Phases=3 Bus1=18.1.2.3   Bus2=21.1.2.3   LineCode=2    Length=0.3

! New Line.L20    Phases=1 Bus1=19.1       Bus2=20.1       LineCode=9    Length=0.325            
New Line.L20    Phases=3 Bus1=19       Bus2=20       LineCode=2    Length=0.325                   

! New Line.L21    Phases=1 Bus1=21.2       Bus2=22.2       LineCode=10   Length=0.525            
New Line.L21    Phases=3 Bus1=21       Bus2=22       LineCode=2   Length=0.525                    

New Line.L22    Phases=3 Bus1=21.1.2.3   Bus2=23.1.2.3   LineCode=2    Length=0.25

! New Line.L23    Phases=1 Bus1=23.3       Bus2=24.3       LineCode=11   Length=0.55             
New Line.L23    Phases=3 Bus1=23       Bus2=24       LineCode=2   Length=0.55                      

New Line.L24    Phases=3 Bus1=23.1.2.3   Bus2=25.1.2.3   LineCode=2    Length=0.275
New Line.L25    Phases=2 Bus1=25r.1.3    Bus2=26.1.3     LineCode=7    Length=0.35
New Line.L26    Phases=3 Bus1=25.1.2.3   Bus2=28.1.2.3   LineCode=2    Length=0.2
New Line.L27    Phases=2 Bus1=26.1.3     Bus2=27.1.3     LineCode=7    Length=0.275
New Line.L28    Phases=1 Bus1=26.3       Bus2=31.3       LineCode=11   Length=0.225
New Line.L29    Phases=1 Bus1=27.1       Bus2=33.1       LineCode=9    Length=0.5
New Line.L30    Phases=3 Bus1=28.1.2.3   Bus2=29.1.2.3   LineCode=2    Length=0.3
New Line.L31    Phases=3 Bus1=29.1.2.3   Bus2=30.1.2.3   LineCode=2    Length=0.35
New Line.L32    Phases=3 Bus1=30.1.2.3   Bus2=250.1.2.3  LineCode=2    Length=0.2
New Line.L33    Phases=1 Bus1=31.3       Bus2=32.3       LineCode=11   Length=0.3

! New Line.L34    Phases=1 Bus1=34.3       Bus2=15.3       LineCode=11   Length=0.1              
New Line.L34    Phases=3 Bus1=34       Bus2=15       LineCode=6   Length=0.1                       

! New Line.L35    Phases=2 Bus1=35.1.2     Bus2=36.1.2     LineCode=8    Length=0.65            
New Line.L35    Phases=3 Bus1=35     Bus2=36     LineCode=3    Length=0.65                         

New Line.L36    Phases=3 Bus1=35.1.2.3   Bus2=40.1.2.3   LineCode=1    Length=0.25
New Line.L37    Phases=1 Bus1=36.1       Bus2=37.1       LineCode=9    Length=0.3

! New Line.L38    Phases=1 Bus1=36.2       Bus2=38.2       LineCode=10   Length=0.25           
New Line.L38    Phases=3 Bus1=36       Bus2=38       LineCode=3   Length=0.25                     

! New Line.L39    Phases=1 Bus1=38.2       Bus2=39.2       LineCode=10   Length=0.325          
New Line.L39    Phases=3 Bus1=38       Bus2=39       LineCode=3   Length=0.325                   

New Line.L40    Phases=1 Bus1=40.3       Bus2=41.3       LineCode=11   Length=0.325
New Line.L41    Phases=3 Bus1=40.1.2.3   Bus2=42.1.2.3   LineCode=1    Length=0.25
New Line.L42    Phases=1 Bus1=42.2       Bus2=43.2       LineCode=10   Length=0.5
New Line.L43    Phases=3 Bus1=42.1.2.3   Bus2=44.1.2.3   LineCode=1    Length=0.2
New Line.L44    Phases=1 Bus1=44.1       Bus2=45.1       LineCode=9    Length=0.2
New Line.L45    Phases=3 Bus1=44.1.2.3   Bus2=47.1.2.3   LineCode=1    Length=0.25
New Line.L46    Phases=1 Bus1=45.1       Bus2=46.1       LineCode=9    Length=0.3
New Line.L47    Phases=3 Bus1=47.1.2.3   Bus2=48.1.2.3   LineCode=4    Length=0.15
New Line.L48    Phases=3 Bus1=47.1.2.3   Bus2=49.1.2.3   LineCode=4    Length=0.25
New Line.L49    Phases=3 Bus1=49.1.2.3   Bus2=50.1.2.3   LineCode=4    Length=0.25
New Line.L50    Phases=3 Bus1=50.1.2.3   Bus2=51.1.2.3   LineCode=4    Length=0.25
New Line.L51    Phases=3 Bus1=51.1.2.3   Bus2=151.1.2.3  LineCode=4    Length=0.5
New Line.L52    Phases=3 Bus1=52.1.2.3   Bus2=53.1.2.3   LineCode=1    Length=0.2
New Line.L53    Phases=3 Bus1=53.1.2.3   Bus2=54.1.2.3   LineCode=1    Length=0.125
New Line.L54    Phases=3 Bus1=54.1.2.3   Bus2=55.1.2.3   LineCode=1    Length=0.275
New Line.L55    Phases=3 Bus1=54.1.2.3   Bus2=57.1.2.3   LineCode=3    Length=0.35
New Line.L56    Phases=3 Bus1=55.1.2.3   Bus2=56.1.2.3   LineCode=1    Length=0.275
New Line.L57    Phases=1 Bus1=57.2       Bus2=58.2       LineCode=10   Length=0.25
New Line.L58    Phases=3 Bus1=57.1.2.3   Bus2=60.1.2.3   LineCode=3    Length=0.75
New Line.L59    Phases=1 Bus1=58.2       Bus2=59.2       LineCode=10   Length=0.25
New Line.L60    Phases=3 Bus1=60.1.2.3   Bus2=61.1.2.3   LineCode=5    Length=0.55

! New Line.L61    Phases=3 Bus1=60.1.2.3   Bus2=62.1.2.3   LineCode=12   Length=0.25       
New Line.L61    Phases=3 Bus1=60.1.2.3   Bus2=62.1.2.3   LineCode=3   Length=0.25       

! New Line.L62    Phases=3 Bus1=62.1.2.3   Bus2=63.1.2.3   LineCode=12   Length=0.175      
New Line.L62    Phases=3 Bus1=62.1.2.3   Bus2=63.1.2.3   LineCode=3   Length=0.175          

! New Line.L63    Phases=3 Bus1=63.1.2.3   Bus2=64.1.2.3   LineCode=12   Length=0.35      
New Line.L63    Phases=3 Bus1=63.1.2.3   Bus2=64.1.2.3   LineCode=3   Length=0.35         

! New Line.L64    Phases=3 Bus1=64.1.2.3   Bus2=65.1.2.3   LineCode=12   Length=0.425      
New Line.L64    Phases=3 Bus1=64.1.2.3   Bus2=65.1.2.3   LineCode=3   Length=0.425          

! New Line.L65    Phases=3 Bus1=65.1.2.3   Bus2=66.1.2.3   LineCode=12   Length=0.325        
New Line.L65    Phases=3 Bus1=65.1.2.3   Bus2=66.1.2.3   LineCode=3   Length=0.325          


New Line.L66    Phases=1 Bus1=67.1       Bus2=68.1       LineCode=9    Length=0.2
New Line.L67    Phases=3 Bus1=67.1.2.3   Bus2=72.1.2.3   LineCode=3    Length=0.275
New Line.L68    Phases=3 Bus1=67.1.2.3   Bus2=97.1.2.3   LineCode=3    Length=0.25
New Line.L69    Phases=1 Bus1=68.1       Bus2=69.1       LineCode=9    Length=0.275
New Line.L70    Phases=1 Bus1=69.1       Bus2=70.1       LineCode=9    Length=0.325
New Line.L71    Phases=1 Bus1=70.1       Bus2=71.1       LineCode=9    Length=0.275
New Line.L72    Phases=1 Bus1=72.3       Bus2=73.3       LineCode=11   Length=0.275
New Line.L73    Phases=3 Bus1=72.1.2.3   Bus2=76.1.2.3   LineCode=3    Length=0.2
New Line.L74    Phases=1 Bus1=73.3       Bus2=74.3       LineCode=11   Length=0.35
New Line.L75    Phases=1 Bus1=74.3       Bus2=75.3       LineCode=11   Length=0.4
New Line.L76    Phases=3 Bus1=76.1.2.3   Bus2=77.1.2.3   LineCode=6    Length=0.4
New Line.L77    Phases=3 Bus1=76.1.2.3   Bus2=86.1.2.3   LineCode=3    Length=0.7
New Line.L78    Phases=3 Bus1=77.1.2.3   Bus2=78.1.2.3   LineCode=6    Length=0.1
New Line.L79    Phases=3 Bus1=78.1.2.3   Bus2=79.1.2.3   LineCode=6    Length=0.225
New Line.L80    Phases=3 Bus1=78.1.2.3   Bus2=80.1.2.3   LineCode=6    Length=0.475
New Line.L81    Phases=3 Bus1=80.1.2.3   Bus2=81.1.2.3   LineCode=6    Length=0.175
New Line.L82    Phases=3 Bus1=81.1.2.3   Bus2=82.1.2.3   LineCode=6    Length=0.25
New Line.L83    Phases=1 Bus1=81.3       Bus2=84.3       LineCode=11   Length=0.675
New Line.L84    Phases=3 Bus1=82.1.2.3   Bus2=83.1.2.3   LineCode=6    Length=0.25
New Line.L85    Phases=1 Bus1=84.3       Bus2=85.3       LineCode=11   Length=0.475
New Line.L86    Phases=3 Bus1=86.1.2.3   Bus2=87.1.2.3   LineCode=6    Length=0.45
New Line.L87    Phases=1 Bus1=87.1       Bus2=88.1       LineCode=9    Length=0.175
New Line.L88    Phases=3 Bus1=87.1.2.3   Bus2=89.1.2.3   LineCode=6    Length=0.275
New Line.L89    Phases=1 Bus1=89.2       Bus2=90.2       LineCode=10   Length=0.25
New Line.L90    Phases=3 Bus1=89.1.2.3   Bus2=91.1.2.3   LineCode=6    Length=0.225
New Line.L91    Phases=1 Bus1=91.3       Bus2=92.3       LineCode=11   Length=0.3
New Line.L92    Phases=3 Bus1=91.1.2.3   Bus2=93.1.2.3   LineCode=6    Length=0.225

! New Line.L93    Phases=1 Bus1=93.1       Bus2=94.1       LineCode=9    Length=0.275         
New Line.L93    Phases=3 Bus1=93       Bus2=94       LineCode=6    Length=0.275                

New Line.L94    Phases=3 Bus1=93.1.2.3   Bus2=95.1.2.3   LineCode=6    Length=0.3
New Line.L95    Phases=1 Bus1=95.2       Bus2=96.2       LineCode=10   Length=0.2
New Line.L96    Phases=3 Bus1=97.1.2.3   Bus2=98.1.2.3   LineCode=3    Length=0.275
New Line.L97    Phases=3 Bus1=98.1.2.3   Bus2=99.1.2.3   LineCode=3    Length=0.55
New Line.L98    Phases=3 Bus1=99.1.2.3   Bus2=100.1.2.3  LineCode=3    Length=0.3
New Line.L99    Phases=3 Bus1=100.1.2.3  Bus2=450.1.2.3  LineCode=3    Length=0.8
New Line.L118   Phases=3 Bus1=197.1.2.3  Bus2=101.1.2.3  LineCode=3    Length=0.25
New Line.L100   Phases=1 Bus1=101.3      Bus2=102.3      LineCode=11   Length=0.225
New Line.L101   Phases=3 Bus1=101.1.2.3  Bus2=105.1.2.3  LineCode=3    Length=0.275
New Line.L102   Phases=1 Bus1=102.3      Bus2=103.3      LineCode=11   Length=0.325
New Line.L103   Phases=1 Bus1=103.3      Bus2=104.3      LineCode=11   Length=0.7
New Line.L104   Phases=1 Bus1=105.2      Bus2=106.2      LineCode=10   Length=0.225
New Line.L105   Phases=3 Bus1=105.1.2.3  Bus2=108.1.2.3  LineCode=3    Length=0.325
New Line.L106   Phases=1 Bus1=106.2      Bus2=107.2      LineCode=10   Length=0.575

! New Line.L107   Phases=1 Bus1=108.1      Bus2=109.1      LineCode=9    Length=0.45        
New Line.L107   Phases=3 Bus1=108      Bus2=109      LineCode=3    Length=0.45                 

New Line.L108   Phases=3 Bus1=108.1.2.3  Bus2=300.1.2.3  LineCode=3    Length=1

! New Line.L109   Phases=1 Bus1=109.1      Bus2=110.1      LineCode=9    Length=0.3          
New Line.L109   Phases=3 Bus1=109      Bus2=110      LineCode=3    Length=0.3                   

New Line.L110   Phases=1 Bus1=110.1      Bus2=111.1      LineCode=9    Length=0.575

! New Line.L111   Phases=1 Bus1=110.1      Bus2=112.1      LineCode=9    Length=0.125         
New Line.L111   Phases=3 Bus1=110      Bus2=112      LineCode=3    Length=0.125                  

! New Line.L112   Phases=1 Bus1=112.1      Bus2=113.1      LineCode=9    Length=0.525         
New Line.L112   Phases=3 Bus1=112      Bus2=113      LineCode=3    Length=0.525                  

! New Line.L113   Phases=1 Bus1=113.1      Bus2=114.1      LineCode=9    Length=0.325       
New Line.L113   Phases=3 Bus1=113      Bus2=114      LineCode=3    Length=0.325                

New Line.L114   Phases=3 Bus1=135.1.2.3  Bus2=35.1.2.3   LineCode=4    Length=0.375
New Line.L116   Phases=3 Bus1=152.1.2.3  Bus2=52.1.2.3   LineCode=1    Length=0.4
New Line.L117   Phases=3 Bus1=160r.1.2.3 Bus2=67.1.2.3   LineCode=6    Length=0.35

!                       #########           New 3Phase Lines              #########
New Line.L200   Phases=3 Bus1=2    Bus2=11   LineCode=2    Length=0.250
New Line.L201   Phases=3 Bus1=11  Bus2=20   LineCode=2    Length=0.300
New Line.L202   Phases=3 Bus1=20  Bus2=22   LineCode=2    Length=0.250
New Line.L203   Phases=3 Bus1=22  Bus2=24   LineCode=2    Length=0.250
New Line.L204   Phases=3 Bus1=47  Bus2=251   LineCode=4    Length=0.250
New Line.L205   Phases=3 Bus1=16  Bus2=195   LineCode=6    Length=0.320
New Line.L206   Phases=3 Bus1=57  Bus2=38   LineCode=3    Length=0.310
New Line.L207   Phases=3 Bus1=39  Bus2=66   LineCode=3    Length=0.250
New Line.L208   Phases=3 Bus1=64  Bus2=151   LineCode=3    Length=0.300
New Line.L209   Phases=3 Bus1=62  Bus2=101   LineCode=3    Length=0.300
New Line.L210   Phases=3 Bus1=350  Bus2=110   LineCode=3    Length=0.350
New Line.L211   Phases=3 Bus1=114  Bus2=451   LineCode=3    Length=0.320


New Line.Sw1    phases=3  Bus1=150r   Bus2=149    r1=1e-3 r0=1e-3 x1=0.000 x0=0.000 c1=0.000 c0=0.000 Length=0.001
New Line.Sw2    phases=3  Bus1=13     Bus2=152    r1=1e-3 r0=1e-3 x1=0.000 x0=0.000 c1=0.000 c0=0.000 Length=0.001
New Line.Sw3    phases=3  Bus1=18     Bus2=135    r1=1e-3 r0=1e-3 x1=0.000 x0=0.000 c1=0.000 c0=0.000 Length=0.001
New Line.Sw4    phases=3  Bus1=60     Bus2=160    r1=1e-3 r0=1e-3 x1=0.000 x0=0.000 c1=0.000 c0=0.000 Length=0.001
New Line.Sw5    phases=3  Bus1=97     Bus2=197    r1=1e-3 r0=1e-3 x1=0.000 x0=0.000 c1=0.000 c0=0.000 Length=0.001
New Line.Sw6    phases=3  Bus1=61     Bus2=61s    r1=1e-3 r0=1e-3 x1=0.000 x0=0.000 c1=0.000 c0=0.000 Length=0.001

! New Line.Sw7    phases=3  Bus1=151    Bus2=300_OPEN   r1=1e-3 r0=1e-3  x1=0.000 x0=0.000 c1=0.000 c0=0.000 Length=0.001    
New Line.Sw7    phases=3  Bus1=151    Bus2=300   r1=1e-3 r0=1e-3  x1=0.000 x0=0.000 c1=0.000 c0=0.000 Length=0.001                


! New Line.Sw8    phases=1  Bus1=54.1   Bus2=94_OPEN.1  r1=1e-3 r0=1e-3  x1=0.000 x0=0.000 c1=0.000 c0=0.000 Length=0.001    
New Line.Sw8    phases=3  Bus1=54   Bus2=94  r1=1e-3 r0=1e-3  x1=0.000 x0=0.000 c1=0.000 c0=0.000 Length=0.001                      

! NEW SWITCHES ADDED                                                                           
New Line.Sw9      phases=3  Bus1=250    Bus2=251   r1=1e-3 r0=1e-3  x1=0.000 x0=0.000 c1=0.000 c0=0.000 Length=0.001
New Line.Sw10    phases=3  Bus1=95      Bus2=195   r1=1e-3 r0=1e-3  x1=0.000 x0=0.000 c1=0.000 c0=0.000 Length=0.001
New Line.Sw11    phases=3  Bus1=300    Bus2=350   r1=1e-3 r0=1e-3  x1=0.000 x0=0.000 c1=0.000 c0=0.000 Length=0.001
New Line.Sw12    phases=3  Bus1=450    Bus2=451   r1=1e-3 r0=1e-3  x1=0.000 x0=0.000 c1=0.000 c0=0.000 Length=0.001


! SWITCH CONTROL ADDED TO ALL Lines and Switches that work as switches                                  
new swtcontrol.Sw1   SwitchedObj=line.Sw1   SwitchedTerm=1 enabled=yes //Action=c     
new swtcontrol.Sw2   SwitchedObj=line.Sw2   SwitchedTerm=1 enabled=yes //Action=c     
new swtcontrol.Sw3   SwitchedObj=line.Sw3   SwitchedTerm=1 enabled=yes //Action=c     
new swtcontrol.Sw4   SwitchedObj=line.Sw4   SwitchedTerm=1 enabled=yes //Action=c     
new swtcontrol.Sw5   SwitchedObj=line.Sw5   SwitchedTerm=1 enabled=yes //Action=c     
new swtcontrol.Sw6   SwitchedObj=line.Sw6   SwitchedTerm=1 enabled=yes //Action=c    
new swtcontrol.Sw7   SwitchedObj=line.Sw7   SwitchedTerm=1 enabled=yes //Action=c      
new swtcontrol.Sw8   SwitchedObj=line.Sw8   SwitchedTerm=1 enabled=yes //Action=c     
new swtcontrol.Sw9   SwitchedObj=line.Sw9   SwitchedTerm=1 enabled=yes //Action=c     
new swtcontrol.Sw10   SwitchedObj=line.Sw10   SwitchedTerm=1 enabled=yes //Action=c   
new swtcontrol.Sw11   SwitchedObj=line.Sw11   SwitchedTerm=1 enabled=yes //Action=c      
new swtcontrol.Sw12   SwitchedObj=line.Sw12   SwitchedTerm=1 enabled=yes //Action=c      

! new swtcontrol.Sw13   SwitchedObj=line.L200   SwitchedTerm=1 Action=c   

new swtcontrol.Sw14   SwitchedObj=line.L14    SwitchedTerm=1 enabled=yes //Action=c    
new swtcontrol.Sw15   SwitchedObj=line.L201    SwitchedTerm=1 enabled=yes //Action=c    
new swtcontrol.Sw16   SwitchedObj=line.L18    SwitchedTerm=1 enabled=yes //Action=c   
new swtcontrol.Sw17   SwitchedObj=line.L202    SwitchedTerm=1 enabled=yes //Action=c   
new swtcontrol.Sw18   SwitchedObj=line.L203    SwitchedTerm=1 enabled=yes //Action=c    
new swtcontrol.Sw19   SwitchedObj=line.L21    SwitchedTerm=1 enabled=yes //Action=c   
new swtcontrol.Sw20   SwitchedObj=line.L23    SwitchedTerm=1 enabled=yes //Action=c    
new swtcontrol.Sw21   SwitchedObj=line.L13    SwitchedTerm=1 enabled=yes //Action=c      
new swtcontrol.Sw22   SwitchedObj=line.L45    SwitchedTerm=1 enabled=yes //Action=c       
new swtcontrol.Sw23   SwitchedObj=line.L206  SwitchedTerm=1 enabled=yes //Action=c      
new swtcontrol.Sw24   SwitchedObj=line.L207  SwitchedTerm=1 enabled=yes //Action=c       
new swtcontrol.Sw25   SwitchedObj=line.L208  SwitchedTerm=1 enabled=yes //Action=c      
new swtcontrol.Sw26   SwitchedObj=line.L209  SwitchedTerm=1 enabled=yes //Action=c     
new swtcontrol.Sw27   SwitchedObj=line.L107  SwitchedTerm=1 enabled=yes //Action=c      
new swtcontrol.Sw28   SwitchedObj=line.L67  SwitchedTerm=1 enabled=yes //Action=c      


New Transformer.XFM1  Phases=3   Windings=2 Xhl=2.72
~ wdg=1 bus=61s       conn=Delta kv=4.16    kva=150    %r=0.635
~ wdg=2 bus=610       conn=Delta kv=0.48    kva=150    %r=0.635

New Capacitor.C83       Bus1=83      Phases=3     kVAR=600     kV=4.16
New Capacitor.C88a      Bus1=88.1    Phases=1     kVAR=50      kV=2.402
New Capacitor.C90b      Bus1=90.2    Phases=1     kVAR=50      kV=2.402
New Capacitor.C92c      Bus1=92.3    Phases=1     kVAR=50      kV=2.402


Set maxcontroliter=500                                                                                  

Redirect IEEE123Regulators.DSS

Redirect IEEE123Loads.DSS


Set VoltageBases = [4.16, 0.48]    ! ARRAY OF VOLTAGES IN KV
CalcVoltageBases  ! PERFORMS ZERO LOAD POWER FLOW TO ESTIMATE VOLTAGE BASES

solve 
